#EXTM3U
#EXT-X-VERSION:3
#EXT-X-STREAM-INF:BANDWIDTH=1280000,RESOLUTION=1280x720
https://manifest.googlevideo.com/api/manifest/hls_playlist/expire/1773644470/ei/Vla3aY_bA5GPi9oPsYPyyA4/ip/85.105.233.142/id/5BN4UOUVOFw.4/itag/96/source/yt_live_broadcast/requiressl/yes/ratebypass/yes/live/1/sgoap/gir%3Dyes%3Bitag%3D140/sgovp/gir%3Dyes%3Bitag%3D137/rqh/1/hls_chunk_host/rr2---sn-u0g3uxax3-pnul.googlevideo.com/xpc/EgVo2aDSNQ%3D%3D/playlist_duration/30/manifest_duration/30/bui/AVNa5-zw2wga1G8IVLVVMP14T9G4Odhyzr5D1DaIVdZsBRe3KaSMIIqxxApcHWRJ0BAoxchIof64pyCT/spc/6dlaFHAld6xwhVLsarhizVV6Vmp7udjYBcdTvbOgQ3Ify_YUCYA6fdSrA4lLAEjD/vprv/1/reg/0/playlist_type/DVR/initcwndbps/2023750/met/1773622870,/mh/Uh/mm/44/mn/sn-u0g3uxax3-pnul/ms/lva/mv/m/mvi/2/pl/22/rms/lva,lva/dover/11/pacing/0/keepalive/yes/fexp/51565116,51565681,51791334/mt/1773622349/sparams/expire,ei,ip,id,itag,source,requiressl,ratebypass,live,sgoap,sgovp,rqh,xpc,playlist_duration,manifest_duration,bui,spc,vprv,reg,playlist_type/sig/AHEqNM4wRAIgZ4eTN8q-J-94MHHRos4ANweO5II4ccXxlQY_qTIoWiMCIGwfXrYMPnmCFX-5y5i-hdUwoehVaKCU1Gx3wYvW0pJb/lsparams/hls_chunk_host,initcwndbps,met,mh,mm,mn,ms,mv,mvi,pl,rms/lsig/APaTxxMwRQIgIHo9Ccm1OAQe8a9JG216RoVcwue6rbFOk9evQ9dQjzMCIQCn_4dV-MFRsf168qVHTHdATTaMU1iMnV-8BU7w1iUMxQ%3D%3D/playlist/index.m3u8
